Version 4
SHEET 1 1368 732
WIRE -784 -1120 -784 -1152
WIRE -944 -1008 -944 -1040
WIRE 832 -944 832 -992
WIRE 592 -912 592 -1088
WIRE 816 -896 784 -896
WIRE 944 -896 912 -896
WIRE 176 -880 176 -928
WIRE 864 -864 864 -896
WIRE 928 -864 928 -960
WIRE 928 -864 864 -864
WIRE -656 -832 -656 -864
WIRE 160 -832 128 -832
WIRE 288 -832 256 -832
WIRE 784 -832 784 -896
WIRE 784 -832 704 -832
WIRE 944 -832 944 -896
WIRE 1056 -832 944 -832
WIRE 1184 -832 1056 -832
WIRE -960 -800 -960 -832
WIRE 208 -800 208 -832
WIRE 272 -800 272 -896
WIRE 272 -800 208 -800
WIRE 928 -784 864 -784
WIRE 128 -768 128 -832
WIRE 128 -768 96 -768
WIRE 288 -768 288 -832
WIRE 336 -768 336 -880
WIRE 336 -768 288 -768
WIRE 592 -768 592 -848
WIRE 592 -768 448 -768
WIRE 784 -752 784 -832
WIRE 816 -752 784 -752
WIRE 864 -752 864 -784
WIRE 944 -752 944 -832
WIRE 944 -752 912 -752
WIRE -736 -720 -736 -752
WIRE 272 -720 208 -720
WIRE 928 -720 928 -784
WIRE 128 -688 128 -768
WIRE 160 -688 128 -688
WIRE 208 -688 208 -720
WIRE 288 -688 288 -768
WIRE 288 -688 256 -688
WIRE 272 -656 272 -720
WIRE 896 -656 896 -704
WIRE 240 -592 240 -640
WIRE 1200 -576 1088 -576
WIRE -48 -544 -48 -592
WIRE 544 -544 544 -592
WIRE -64 -496 -96 -496
WIRE 64 -496 32 -496
WIRE 528 -496 496 -496
WIRE 656 -496 624 -496
WIRE -16 -464 -16 -496
WIRE 48 -464 48 -560
WIRE 48 -464 -16 -464
WIRE 576 -464 576 -496
WIRE 640 -464 640 -560
WIRE 640 -464 576 -464
WIRE -224 -432 -240 -432
WIRE -96 -432 -96 -496
WIRE -96 -432 -224 -432
WIRE 64 -432 64 -496
WIRE 96 -432 96 -768
WIRE 96 -432 64 -432
WIRE 144 -432 96 -432
WIRE 448 -432 448 -768
WIRE 496 -432 496 -496
WIRE 496 -432 448 -432
WIRE 656 -432 656 -496
WIRE 704 -432 704 -832
WIRE 704 -432 656 -432
WIRE 752 -432 704 -432
WIRE 1024 -432 1024 -576
WIRE 1184 -432 1024 -432
WIRE 448 -400 448 -432
WIRE 448 -400 400 -400
WIRE 1024 -400 1024 -432
WIRE 1024 -400 1008 -400
WIRE 48 -384 -16 -384
WIRE 640 -384 576 -384
WIRE -96 -352 -96 -432
WIRE -64 -352 -96 -352
WIRE -16 -352 -16 -384
WIRE 64 -352 64 -432
WIRE 64 -352 32 -352
WIRE 496 -352 496 -432
WIRE 528 -352 496 -352
WIRE 576 -352 576 -384
WIRE 656 -352 656 -432
WIRE 656 -352 624 -352
WIRE 48 -320 48 -384
WIRE 640 -320 640 -384
WIRE 144 -272 144 -368
WIRE 16 -256 16 -304
WIRE 608 -256 608 -304
WIRE 752 -208 752 -368
FLAG -960 -720 0
FLAG -960 -832 VDD
FLAG 416 -1264 ~CK
FLAG 288 -1264 CK
FLAG 352 -1232 0
FLAG 352 -1296 VDD
FLAG -48 -592 CK
FLAG 48 -320 0
FLAG 48 -560 VDD
FLAG 832 -992 CK
FLAG 928 -720 0
FLAG 928 -960 VDD
FLAG 176 -928 ~CK
FLAG 240 -592 CK
FLAG 272 -656 0
FLAG 272 -896 VDD
FLAG 544 -592 ~CK
FLAG 608 -256 CK
FLAG 640 -320 0
FLAG 640 -560 VDD
FLAG 16 -256 ~CK
FLAG 896 -656 ~CK
FLAG 1184 -432 Q
FLAG 272 -480 VDD
FLAG 272 -320 0
FLAG 976 -704 VDD
FLAG 1136 -704 0
FLAG 112 -208 VDD
FLAG 176 -208 0
FLAG 1264 -608 VDD
FLAG 1264 -544 0
FLAG 144 -144 CLR
FLAG 1328 -576 CLR
FLAG 464 -960 VDD
FLAG 464 -800 0
FLAG 880 -480 VDD
FLAG 880 -320 0
FLAG 592 -1088 PRE
FLAG 752 -208 PRE
FLAG -224 -432 D
FLAG -944 -928 0
FLAG -656 -752 0
FLAG -656 -864 CK
FLAG -944 -1040 D
FLAG -784 -1040 0
FLAG -784 -1152 CLR
FLAG -736 -640 0
FLAG -736 -752 PRE
SYMBOL voltage -960 -816 R0
WINDOW 123 0 0 Left 0
WINDOW 39 0 0 Left 0
SYMATTR InstName V1
SYMATTR Value 1.8
SYMBOL INV 368 -1264 R0
SYMATTR InstName X1
SYMBOL pmos4 32 -544 R90
SYMATTR InstName M9
SYMATTR Value2 l=180n w=6u
SYMBOL nmos4 -64 -304 R270
SYMATTR InstName M10
SYMATTR Value2 l=180n w=6u
SYMBOL pmos4 912 -944 R90
SYMATTR InstName M11
SYMATTR Value2 l=180n w=6u
SYMBOL nmos4 816 -704 R270
SYMATTR InstName M12
SYMATTR Value2 l=180n w=6u
SYMBOL pmos4 256 -880 R90
SYMATTR InstName M13
SYMATTR Value2 l=180n w=6u
SYMBOL nmos4 160 -640 R270
SYMATTR InstName M14
SYMATTR Value2 l=180n w=6u
SYMBOL pmos4 624 -544 R90
SYMATTR InstName M15
SYMATTR Value2 l=180n w=6u
SYMBOL nmos4 528 -304 R270
SYMATTR InstName M16
SYMATTR Value2 l=180n w=6u
SYMBOL NAND_NAND 288 -400 R0
SYMATTR InstName X8
SYMBOL NAND_NAND 1056 -720 R270
SYMATTR InstName X9
SYMBOL INV 144 -224 R270
SYMATTR InstName X10
SYMBOL INV 1248 -576 M0
SYMATTR InstName X11
SYMBOL NAND_NAND 448 -880 M0
SYMATTR InstName X12
SYMBOL NAND_NAND 896 -400 R0
SYMATTR InstName X13
SYMBOL voltage -944 -1024 R0
WINDOW 123 0 0 Left 0
WINDOW 39 0 0 Left 0
SYMATTR InstName V6
SYMATTR Value PULSE(0 1.8 1u 1p 1p 1u 4u)
SYMBOL voltage -656 -848 R0
WINDOW 123 0 0 Left 0
WINDOW 39 0 0 Left 0
SYMATTR InstName V7
SYMATTR Value PULSE(1.8 0 0 1p 1p 1u 2u)
SYMBOL voltage -784 -1136 R0
WINDOW 123 0 0 Left 0
WINDOW 39 0 0 Left 0
SYMATTR InstName V8
SYMATTR Value PULSE(0 1.8 2u 1p 1p 0.5u 5u)
SYMBOL voltage -736 -736 R0
WINDOW 123 0 0 Left 0
WINDOW 39 0 0 Left 0
SYMATTR InstName V9
SYMATTR Value PULSE(0 1.8 1.5u 1p 1p 1.5u 3.5u)
TEXT -656 -1176 Left 2 !.tran 20u
TEXT -680 -1096 Left 2 !.lib tsmc180.lib
