Version 4
SHEET 1 1256 680
WIRE 720 -208 672 -208
WIRE 768 -208 720 -208
WIRE 192 -160 192 -192
WIRE 576 -16 416 -16
WIRE 880 -16 720 -16
WIRE -352 80 -352 48
WIRE 416 96 416 -16
WIRE 720 96 720 -16
WIRE 576 112 576 -16
WIRE 576 112 544 112
WIRE 880 112 880 -16
WIRE 880 112 848 112
WIRE 576 128 576 112
WIRE 720 128 576 128
WIRE 880 128 880 112
WIRE 960 128 880 128
WIRE -512 192 -512 160
WIRE 800 224 480 224
WIRE 592 240 352 240
WIRE 944 240 688 240
WIRE 480 272 480 224
WIRE 800 272 800 224
WIRE 352 320 352 240
WIRE 400 320 352 320
WIRE 640 320 560 320
WIRE 688 320 688 240
WIRE 720 320 688 320
WIRE 960 320 880 320
WIRE -224 368 -224 336
WIRE 400 368 352 368
WIRE 592 368 592 240
WIRE 592 368 576 368
WIRE 640 368 640 320
WIRE 720 368 640 368
WIRE 944 368 944 240
WIRE 944 368 896 368
WIRE 480 448 480 416
WIRE 800 448 800 416
WIRE 800 448 656 448
WIRE -304 480 -304 448
FLAG -512 272 0
FLAG -224 448 0
FLAG -224 336 CK
FLAG -512 160 D
FLAG 416 128 CK
FLAG -352 160 0
FLAG -352 48 CLR
FLAG 192 -80 0
FLAG 192 -192 VDD
FLAG 480 160 CLR
FLAG 784 160 CLR
FLAG 352 368 CK
FLAG 960 128 OUT2
FLAG 960 320 OUT1
FLAG 512 -208 D
FLAG 512 -160 CK
FLAG 592 -112 CLR
FLAG 720 -208 U2
FLAG -304 560 0
FLAG -304 448 PRE
FLAG 592 -256 PRE
SYMBOL voltage -512 176 R0
WINDOW 123 0 0 Left 0
WINDOW 39 0 0 Left 0
SYMATTR InstName V1
SYMATTR Value PULSE(0 1.8 1u 1p 1p 1u 4u)
SYMBOL voltage -224 352 R0
WINDOW 123 0 0 Left 0
WINDOW 39 0 0 Left 0
SYMATTR InstName V2
SYMATTR Value PULSE(1.8 0 0 1p 1p 1u 2u)
SYMBOL voltage -352 64 R0
WINDOW 123 0 0 Left 0
WINDOW 39 0 0 Left 0
SYMATTR InstName V3
SYMATTR Value PULSE(0 1.8 2u 1p 1p 0.5u 5u)
SYMBOL voltage 192 -176 R0
WINDOW 123 0 0 Left 0
WINDOW 39 0 0 Left 0
SYMATTR InstName V4
SYMATTR Value 1.8
SYMBOL Digital\\dflop 480 272 R0
SYMATTR InstName A1
SYMBOL Digital\\dflop 800 272 R0
SYMATTR InstName A2
SYMBOL FFD_FFD1 480 112 R0
SYMATTR InstName X1
SYMBOL FFD_FFD1 784 112 R0
SYMATTR InstName X2
SYMBOL Digital\\dflop 592 -256 R0
SYMATTR InstName A3
SYMBOL voltage -304 464 R0
WINDOW 123 0 0 Left 0
WINDOW 39 0 0 Left 0
SYMATTR InstName V5
SYMATTR Value PULSE(0 1.8 1.5u 1p 1p 1.5u 3.5u)
TEXT -224 24 Left 2 !.tran 20u
TEXT -248 104 Left 2 !.lib tsmc180.lib
