Version 4
SHEET 1 1108 680
WIRE 336 -32 320 -32
WIRE 944 -32 336 -32
WIRE 912 96 864 96
WIRE 944 96 944 -32
WIRE 944 96 912 96
WIRE 272 112 272 16
WIRE 352 112 272 112
WIRE 720 112 688 112
WIRE 928 128 864 128
WIRE 944 128 928 128
WIRE 272 192 272 112
WIRE 336 240 320 240
WIRE 944 240 944 128
WIRE 944 240 336 240
WIRE -352 272 -352 240
WIRE 688 288 688 112
WIRE 1104 288 688 288
WIRE 352 304 352 112
WIRE 352 304 304 304
WIRE 304 416 304 304
WIRE 336 416 304 416
WIRE 528 416 496 416
WIRE 880 416 848 416
WIRE 1104 416 1104 288
WIRE 1104 416 1040 416
WIRE 48 448 48 304
FLAG -352 352 0
FLAG -352 240 V
FLAG 208 224 V
FLAG 800 48 VDD
FLAG 800 176 0
FLAG 208 -48 VDD
FLAG 208 256 VDD
FLAG 48 528 0
FLAG 48 304 R
FLAG 208 -16 R
FLAG -160 80 0
FLAG -160 0 VDD
FLAG 912 96 UP
FLAG 928 128 DOWN
FLAG 608 368 VDD
FLAG 608 464 0
FLAG 416 368 VDD
FLAG 416 464 0
FLAG 960 368 VDD
FLAG 960 464 0
FLAG 768 368 VDD
FLAG 768 464 0
SYMBOL voltage -352 256 R0
WINDOW 123 0 0 Left 0
WINDOW 39 0 0 Left 0
SYMATTR InstName V1
SYMATTR Value PULSE(0 1.8 0.5n 1p 1p 3n 6n)
SYMBOL AND 816 112 M0
SYMATTR InstName X1
SYMBOL FFD_FFD1 272 -32 R0
SYMATTR InstName X2
SYMBOL FFD_FFD1 272 240 M180
SYMATTR InstName X3
SYMBOL voltage 48 432 R0
WINDOW 123 0 0 Left 0
WINDOW 39 0 0 Left 0
SYMATTR InstName V2
SYMATTR Value PULSE(0 1.8 0.2n 1p 1p 2n 4n)
SYMBOL voltage -160 -16 R0
WINDOW 123 0 0 Left 0
WINDOW 39 0 0 Left 0
SYMATTR InstName V3
SYMATTR Value 1.8
SYMBOL INV_INV 608 416 M0
SYMATTR InstName X8
SYMBOL INV_INV 416 416 M0
SYMATTR InstName X9
SYMBOL INV_INV 960 416 M0
SYMATTR InstName X4
SYMBOL INV_INV 768 416 M0
SYMATTR InstName X5
TEXT -240 248 Left 2 !.tran 10n
TEXT -240 168 Left 2 !.lib tsmc180.lib
