Version 4
SHEET 1 1176 680
WIRE 640 -256 640 -304
WIRE 624 -208 592 -208
WIRE 752 -208 720 -208
WIRE -1040 -192 -1040 -224
WIRE -16 -192 -16 -240
WIRE 672 -176 672 -208
WIRE 736 -176 736 -272
WIRE 736 -176 672 -176
WIRE -32 -144 -64 -144
WIRE 96 -144 64 -144
WIRE 592 -144 592 -208
WIRE 592 -144 512 -144
WIRE 752 -144 752 -208
WIRE 864 -144 752 -144
WIRE 16 -112 16 -144
WIRE 80 -112 80 -208
WIRE 80 -112 16 -112
WIRE 736 -96 672 -96
WIRE -64 -80 -64 -144
WIRE -64 -80 -96 -80
WIRE 96 -80 96 -144
WIRE 144 -80 96 -80
WIRE 304 -80 272 -80
WIRE 592 -64 592 -144
WIRE 624 -64 592 -64
WIRE 672 -64 672 -96
WIRE 752 -64 752 -144
WIRE 752 -64 720 -64
WIRE 80 -32 16 -32
WIRE 736 -32 736 -96
WIRE -64 0 -64 -80
WIRE -32 0 -64 0
WIRE 16 0 16 -32
WIRE 96 0 96 -80
WIRE 96 0 64 0
WIRE 304 16 304 -80
WIRE 304 16 256 16
WIRE -960 32 -960 0
WIRE 80 32 80 -32
WIRE 704 32 704 -16
WIRE 48 96 48 48
WIRE 1008 112 896 112
WIRE -240 144 -240 96
WIRE 352 144 352 96
WIRE -256 192 -288 192
WIRE -128 192 -160 192
WIRE 336 192 304 192
WIRE 464 192 432 192
WIRE -208 224 -208 192
WIRE -144 224 -144 128
WIRE -144 224 -208 224
WIRE 384 224 384 192
WIRE 448 224 448 128
WIRE 448 224 384 224
WIRE -976 256 -976 224
WIRE -288 256 -288 192
WIRE -288 256 -480 256
WIRE -128 256 -128 192
WIRE -96 256 -96 -80
WIRE -96 256 -128 256
WIRE -48 256 -96 256
WIRE 256 256 256 16
WIRE 304 256 304 192
WIRE 304 256 256 256
WIRE 464 256 464 192
WIRE 512 256 512 -144
WIRE 512 256 464 256
WIRE 608 256 512 256
WIRE 832 256 832 112
WIRE 832 256 736 256
WIRE 992 256 832 256
WIRE 256 288 256 256
WIRE 256 288 208 288
WIRE -144 304 -208 304
WIRE 448 304 384 304
WIRE -288 336 -288 256
WIRE -256 336 -288 336
WIRE -208 336 -208 304
WIRE -128 336 -128 256
WIRE -128 336 -160 336
WIRE 304 336 304 256
WIRE 336 336 304 336
WIRE 384 336 384 304
WIRE 464 336 464 256
WIRE 464 336 432 336
WIRE -144 368 -144 304
WIRE 448 368 448 304
WIRE -48 416 -48 320
WIRE -176 432 -176 384
WIRE 416 432 416 384
WIRE -1024 480 -1024 448
FLAG -240 96 CK
FLAG -144 368 0
FLAG -960 112 0
FLAG -960 0 VDD
FLAG -144 128 VDD
FLAG -768 -336 ~CK
FLAG -896 -336 CK
FLAG -832 -304 0
FLAG -832 -368 VDD
FLAG 640 -304 CK
FLAG 736 -32 0
FLAG 736 -272 VDD
FLAG -16 -240 ~CK
FLAG 48 96 CK
FLAG 80 32 0
FLAG 80 -208 VDD
FLAG 352 96 ~CK
FLAG 416 432 CK
FLAG 448 368 0
FLAG 448 128 VDD
FLAG -176 432 ~CK
FLAG 704 32 ~CK
FLAG 992 256 Q
FLAG -480 256 D
FLAG 80 368 0
FLAG 784 -16 VDD
FLAG 944 -16 0
FLAG -80 480 VDD
FLAG -16 480 0
FLAG 1072 80 VDD
FLAG 1072 144 0
FLAG -48 544 CLR
FLAG 1136 112 CLR
FLAG 80 208 VDD
FLAG 208 -112 VDD
FLAG 208 -48 0
FLAG 672 224 VDD
FLAG 672 288 0
FLAG -976 336 0
FLAG -976 224 CK
FLAG -1040 -112 0
FLAG -1040 -224 D
FLAG -1024 560 0
FLAG -1024 448 CLR
FLAG -800 -240 CK
FLAG -800 -272 D
FLAG -736 -208 CLR
FLAG -672 -256 Q1
SYMBOL pmos4 -160 144 R90
SYMATTR InstName M1
SYMATTR Value2 l=180n w=1.8u
SYMBOL nmos4 -256 384 R270
SYMATTR InstName M2
SYMATTR Value2 l=180n w=1.8u
SYMBOL voltage -960 16 R0
WINDOW 123 0 0 Left 0
WINDOW 39 0 0 Left 0
SYMATTR InstName V1
SYMATTR Value 1.8
SYMBOL INV -816 -336 R0
SYMATTR InstName X1
SYMBOL pmos4 720 -256 R90
SYMATTR InstName M3
SYMATTR Value2 l=180n w=1.8u
SYMBOL nmos4 624 -16 R270
SYMATTR InstName M4
SYMATTR Value2 l=180n w=1.8u
SYMBOL pmos4 64 -192 R90
SYMATTR InstName M5
SYMATTR Value2 l=180n w=1.8u
SYMBOL nmos4 -32 48 R270
SYMATTR InstName M6
SYMATTR Value2 l=180n w=1.8u
SYMBOL pmos4 432 144 R90
SYMATTR InstName M7
SYMATTR Value2 l=180n w=1.8u
SYMBOL nmos4 336 384 R270
SYMATTR InstName M8
SYMATTR Value2 l=180n w=1.8u
SYMBOL NAND_NAND 96 288 R0
SYMATTR InstName X2
SYMBOL NAND_NAND 864 -32 R270
SYMATTR InstName X3
SYMBOL INV -48 464 R270
SYMATTR InstName X4
SYMBOL INV 1056 112 M0
SYMATTR InstName X5
SYMBOL INV 192 -80 M0
SYMATTR InstName X6
SYMBOL INV 688 256 R0
SYMATTR InstName X7
SYMBOL voltage -976 240 R0
WINDOW 123 0 0 Left 0
WINDOW 39 0 0 Left 0
SYMATTR InstName V2
SYMATTR Value PULSE(0 1.8 1u 1p 1p 1u 2u)
SYMBOL voltage -1040 -208 R0
WINDOW 123 0 0 Left 0
WINDOW 39 0 0 Left 0
SYMATTR InstName V4
SYMATTR Value PULSE(0 1.8 0.5u 1p 1p 1u 2u)
SYMBOL voltage -1024 464 R0
WINDOW 123 0 0 Left 0
WINDOW 39 0 0 Left 0
SYMATTR InstName V5
SYMATTR Value PULSE(0 1.8 2u 1p 1p 0.4u 3u)
SYMBOL FFD_FFD1 -736 -256 R0
SYMATTR InstName X8
TEXT -840 -488 Left 2 !.tran 30u
TEXT -840 80 Left 2 !.lib 130nm.txt
