Version 4
SHEET 1 1288 804
WIRE 752 -1136 752 -1184
WIRE 736 -1088 704 -1088
WIRE 864 -1088 832 -1088
WIRE 96 -1072 96 -1120
WIRE 784 -1056 784 -1088
WIRE 848 -1056 848 -1152
WIRE 848 -1056 784 -1056
WIRE 80 -1024 48 -1024
WIRE 208 -1024 176 -1024
WIRE 704 -1024 704 -1088
WIRE 704 -1024 624 -1024
WIRE 864 -1024 864 -1088
WIRE 976 -1024 864 -1024
WIRE 128 -992 128 -1024
WIRE 192 -992 192 -1088
WIRE 192 -992 128 -992
WIRE 848 -976 784 -976
WIRE 48 -960 48 -1024
WIRE 48 -960 16 -960
WIRE 208 -960 208 -1024
WIRE 256 -960 208 -960
WIRE 416 -960 384 -960
WIRE 704 -944 704 -1024
WIRE 736 -944 704 -944
WIRE 784 -944 784 -976
WIRE 864 -944 864 -1024
WIRE 864 -944 832 -944
WIRE 192 -912 128 -912
WIRE 848 -912 848 -976
WIRE 48 -880 48 -960
WIRE 80 -880 48 -880
WIRE 128 -880 128 -912
WIRE 208 -880 208 -960
WIRE 208 -880 176 -880
WIRE 416 -864 416 -960
WIRE 416 -864 368 -864
WIRE 192 -848 192 -912
WIRE 816 -848 816 -896
WIRE 160 -784 160 -832
WIRE 1120 -768 1008 -768
WIRE -128 -736 -128 -784
WIRE 464 -736 464 -784
WIRE -144 -688 -176 -688
WIRE -16 -688 -48 -688
WIRE 448 -688 416 -688
WIRE 576 -688 544 -688
WIRE -96 -656 -96 -688
WIRE -32 -656 -32 -752
WIRE -32 -656 -96 -656
WIRE 496 -656 496 -688
WIRE 560 -656 560 -752
WIRE 560 -656 496 -656
WIRE -176 -624 -176 -688
WIRE -176 -624 -368 -624
WIRE -16 -624 -16 -688
WIRE 16 -624 16 -960
WIRE 16 -624 -16 -624
WIRE 64 -624 16 -624
WIRE 368 -624 368 -864
WIRE 416 -624 416 -688
WIRE 416 -624 368 -624
WIRE 576 -624 576 -688
WIRE 624 -624 624 -1024
WIRE 624 -624 576 -624
WIRE 720 -624 624 -624
WIRE 944 -624 944 -768
WIRE 944 -624 848 -624
WIRE 1104 -624 944 -624
WIRE 368 -592 368 -624
WIRE 368 -592 320 -592
WIRE -32 -576 -96 -576
WIRE 560 -576 496 -576
WIRE -176 -544 -176 -624
WIRE -144 -544 -176 -544
WIRE -96 -544 -96 -576
WIRE -16 -544 -16 -624
WIRE -16 -544 -48 -544
WIRE 416 -544 416 -624
WIRE 448 -544 416 -544
WIRE 496 -544 496 -576
WIRE 576 -544 576 -624
WIRE 576 -544 544 -544
WIRE -32 -512 -32 -576
WIRE 560 -512 560 -576
WIRE -464 -496 -464 -528
WIRE 64 -464 64 -560
WIRE -64 -448 -64 -496
WIRE 528 -448 528 -496
FLAG -464 -416 0
FLAG -464 -528 VDD
FLAG -864 -480 ~CK
FLAG -992 -480 CK
IOPIN -992 -480 In
FLAG -928 -448 0
FLAG -928 -512 VDD
FLAG -128 -784 CK
FLAG -32 -512 0
FLAG -32 -752 VDD
FLAG 752 -1184 CK
FLAG 848 -912 0
FLAG 848 -1152 VDD
FLAG 96 -1120 ~CK
FLAG 160 -784 CK
FLAG 192 -848 0
FLAG 192 -1088 VDD
FLAG 464 -784 ~CK
FLAG 528 -448 CK
FLAG 560 -512 0
FLAG 560 -752 VDD
FLAG -64 -448 ~CK
FLAG 816 -848 ~CK
FLAG 1104 -624 Q
FLAG -368 -624 D
FLAG 192 -512 0
FLAG 896 -896 VDD
FLAG 1056 -896 0
FLAG 32 -400 VDD
FLAG 96 -400 0
FLAG 1184 -800 VDD
FLAG 1184 -736 0
FLAG 64 -336 CLR
FLAG 1248 -768 CLR
FLAG 192 -672 VDD
FLAG 320 -992 VDD
FLAG 320 -928 0
FLAG 784 -656 VDD
FLAG 784 -592 0
SYMBOL voltage -464 -512 R0
WINDOW 123 0 0 Left 0
WINDOW 39 0 0 Left 0
SYMATTR InstName V1
SYMATTR Value 1.8
SYMBOL INV -912 -480 R0
SYMATTR InstName X1
SYMBOL pmos4 -48 -736 R90
SYMATTR InstName M11
SYMATTR Value2 l=180n w=1.8u
SYMBOL nmos4 -144 -496 R270
SYMATTR InstName M12
SYMATTR Value2 l=180n w=1.8u
SYMBOL pmos4 832 -1136 R90
SYMATTR InstName M13
SYMATTR Value2 l=180n w=1.8u
SYMBOL nmos4 736 -896 R270
SYMATTR InstName M14
SYMATTR Value2 l=180n w=1.8u
SYMBOL pmos4 176 -1072 R90
SYMATTR InstName M15
SYMATTR Value2 l=180n w=1.8u
SYMBOL nmos4 80 -832 R270
SYMATTR InstName M16
SYMATTR Value2 l=180n w=1.8u
SYMBOL pmos4 544 -736 R90
SYMATTR InstName M17
SYMATTR Value2 l=180n w=1.8u
SYMBOL nmos4 448 -496 R270
SYMATTR InstName M18
SYMATTR Value2 l=180n w=1.8u
SYMBOL NAND_NAND 208 -592 R0
SYMATTR InstName X3
SYMBOL NAND_NAND 976 -912 R270
SYMATTR InstName X8
SYMBOL INV 64 -416 R270
SYMATTR InstName X9
SYMBOL INV 1168 -768 M0
SYMATTR InstName X10
SYMBOL INV 304 -960 M0
SYMATTR InstName X11
SYMBOL INV 800 -624 R0
SYMATTR InstName X12
