Version 4
SHEET 1 1176 680
WIRE 336 -32 320 -32
WIRE 416 -32 336 -32
WIRE 608 -32 576 -32
WIRE 944 -32 768 -32
WIRE 960 -32 944 -32
WIRE 912 96 864 96
WIRE 944 96 944 -32
WIRE 944 96 912 96
WIRE 272 112 272 16
WIRE 320 112 272 112
WIRE 512 112 480 112
WIRE 720 112 672 112
WIRE 928 128 864 128
WIRE 944 128 928 128
WIRE 272 192 272 112
WIRE 336 240 320 240
WIRE 560 240 336 240
WIRE 752 240 720 240
WIRE 944 240 944 128
WIRE 944 240 912 240
WIRE -352 272 -352 240
WIRE 48 448 48 304
FLAG -352 352 0
FLAG -352 240 V
FLAG 208 224 V
FLAG 800 48 VDD
FLAG 800 176 0
FLAG 208 -48 VDD
FLAG 208 256 VDD
FLAG 48 528 0
FLAG 48 304 R
FLAG 208 -16 R
FLAG -160 80 0
FLAG -160 0 VDD
FLAG 912 96 UP
FLAG 928 128 DOWN
FLAG 592 64 VDD
FLAG 592 160 0
FLAG 400 64 VDD
FLAG 400 160 0
FLAG 496 -80 VDD
FLAG 496 16 0
FLAG 688 -80 VDD
FLAG 688 16 0
FLAG 640 192 VDD
FLAG 640 288 0
FLAG 832 192 VDD
FLAG 832 288 0
SYMBOL voltage -352 256 R0
WINDOW 123 0 0 Left 0
WINDOW 39 0 0 Left 0
SYMATTR InstName V1
SYMATTR Value PULSE(0 1.8 0.5n 1f 1f 2n 4n)
SYMBOL AND 816 112 M0
SYMATTR InstName X1
SYMBOL FFD_FFD1 272 -32 R0
SYMATTR InstName X2
SYMBOL FFD_FFD1 272 240 M180
SYMATTR InstName X3
SYMBOL voltage 48 432 R0
WINDOW 123 0 0 Left 0
WINDOW 39 0 0 Left 0
SYMATTR InstName V2
SYMATTR Value PULSE(0 1.8 0.2n 1f 1f 2n 4n)
SYMBOL voltage -160 -16 R0
WINDOW 123 0 0 Left 0
WINDOW 39 0 0 Left 0
SYMATTR InstName V3
SYMATTR Value 1.8
SYMBOL INV_INV 592 112 M0
SYMATTR InstName X8
SYMBOL INV_INV 400 112 M0
SYMATTR InstName X9
SYMBOL INV_INV 496 -32 R0
SYMATTR InstName X4
SYMBOL INV_INV 688 -32 R0
SYMATTR InstName X5
SYMBOL INV_INV 640 240 R0
SYMATTR InstName X6
SYMBOL INV_INV 832 240 R0
SYMATTR InstName X7
TEXT -240 248 Left 2 !.tran 10n
TEXT -240 168 Left 2 !.lib tsmc180.lib
