Version 4
SHEET 1 2956 1252
WIRE -496 -1296 -544 -1296
WIRE -288 -1296 -336 -1296
WIRE -224 -1216 -432 -1216
WIRE -192 -1216 -192 -1280
WIRE -192 -1216 -224 -1216
WIRE -176 -1216 -192 -1216
WIRE -64 -1216 -176 -1216
WIRE -16 -1216 -64 -1216
WIRE -288 -1184 -288 -1296
WIRE -144 -1184 -288 -1184
WIRE -64 -1184 -64 -1216
WIRE -224 -1168 -224 -1216
WIRE -544 -1136 -544 -1296
WIRE -544 -1136 -592 -1136
WIRE -16 -1136 -16 -1216
WIRE -16 -1136 -64 -1136
WIRE -176 -1120 -176 -1216
WIRE -176 -1120 -224 -1120
WIRE -144 -1104 -144 -1184
WIRE -112 -1104 -144 -1104
WIRE -432 -1088 -432 -1216
WIRE -272 -1088 -304 -1088
WIRE -304 -1056 -304 -1088
WIRE -64 -1040 -64 -1088
WIRE -224 -1024 -224 -1072
WIRE -224 -1024 -240 -1024
WIRE -16 -992 -16 -1136
WIRE -16 -992 -64 -992
WIRE -432 -976 -432 -1008
WIRE -352 -976 -432 -976
WIRE -112 -960 -160 -960
WIRE -432 -928 -432 -976
WIRE -240 -928 -240 -1024
WIRE -64 -928 -64 -944
WIRE 96 -928 -64 -928
WIRE 192 -928 96 -928
WIRE 240 -928 192 -928
WIRE -64 -912 -64 -928
WIRE 96 -896 96 -928
WIRE 192 -896 192 -928
WIRE -432 -880 -448 -880
WIRE -240 -880 -288 -880
WIRE -48 -864 -64 -864
WIRE -352 -848 -352 -976
WIRE -352 -848 -384 -848
WIRE -160 -848 -160 -960
WIRE -160 -848 -192 -848
WIRE -112 -832 -128 -832
WIRE -240 -816 -240 -832
WIRE -160 -816 -160 -848
WIRE -160 -816 -240 -816
WIRE -432 -800 -432 -832
WIRE -352 -800 -352 -848
WIRE -304 -800 -352 -800
WIRE -240 -800 -240 -816
WIRE -64 -784 -64 -816
WIRE 96 -784 96 -816
WIRE -448 -752 -448 -880
WIRE -432 -752 -448 -752
WIRE -48 -736 -48 -864
WIRE -48 -736 -64 -736
WIRE -352 -720 -384 -720
WIRE -448 -688 -448 -752
WIRE -432 -688 -432 -704
WIRE -432 -688 -448 -688
WIRE -240 -688 -240 -720
WIRE -64 -688 -240 -688
WIRE -48 -688 -48 -736
WIRE -48 -688 -64 -688
WIRE 96 -688 96 -720
WIRE 192 -688 192 -832
WIRE 192 -688 96 -688
WIRE -432 -672 -432 -688
WIRE -240 -672 -240 -688
WIRE 96 -672 96 -688
WIRE -304 -640 -304 -800
WIRE -128 -640 -128 -832
WIRE -128 -640 -304 -640
WIRE -544 -624 -544 -800
WIRE -112 -624 -112 -704
WIRE -112 -624 -544 -624
FLAG -1248 -48 0
FLAG -1248 -128 VDD
FLAG -192 -1280 VDD
FLAG -432 -672 0
FLAG -240 -672 0
FLAG -304 -1056 0
FLAG -352 -720 VDD
FLAG -288 -880 VDD
FLAG -592 -1136 UP
FLAG -544 -800 DOWN
FLAG 96 -672 0
FLAG 240 -928 Vctrl
FLAG -416 -1248 0
FLAG -416 -1344 VDD
SYMBOL voltage -1248 -144 R0
WINDOW 123 0 0 Left 0
WINDOW 39 0 0 Left 0
SYMATTR InstName V1
SYMATTR Value 1.2
SYMBOL nmos4 -384 -800 M0
SYMATTR InstName M6
SYMATTR Value2 l=130n w=150n
SYMBOL pmos4 -272 -1168 R0
SYMATTR InstName M7
SYMATTR Value2 l=130n w=300n
SYMBOL pmos4 -112 -1184 R0
SYMATTR InstName M8
SYMATTR Value2 l=130n w=300n
SYMBOL pmos4 -112 -1040 R0
SYMATTR InstName M9
SYMATTR Value2 l=130n w=300n
SYMBOL nmos4 -112 -912 R0
SYMATTR InstName M10
SYMATTR Value2 l=130n w=150n
SYMBOL nmos4 -112 -784 R0
SYMATTR InstName M11
SYMATTR Value2 l=130n w=150n
SYMBOL nmos4 -384 -928 M0
SYMATTR InstName M12
SYMATTR Value2 l=130n w=150n
SYMBOL res -448 -1104 R0
SYMATTR InstName R2
SYMATTR Value 10k
SYMBOL pmos4 -192 -928 M0
SYMATTR InstName M13
SYMATTR Value2 l=130n w=300n
SYMBOL res -256 -816 R0
SYMATTR InstName R4
SYMATTR Value 10k
SYMBOL res 80 -912 R0
SYMATTR InstName R5
SYMATTR Value 10k
SYMBOL cap 176 -896 R0
SYMATTR InstName C3
SYMATTR Value 25p
SYMBOL cap 80 -784 R0
SYMATTR InstName C4
SYMATTR Value 10p
SYMBOL INV_INV -416 -1296 R0
SYMATTR InstName X1
TEXT -1328 40 Left 2 !.lib 130nm.txt
