Version 4
SHEET 1 1880 732
WIRE 1232 -1456 1232 -1472
WIRE -192 -1008 -192 -1040
WIRE 1344 -1008 1344 -1056
WIRE 1328 -960 1296 -960
WIRE 1456 -960 1424 -960
WIRE 688 -944 688 -992
WIRE 1376 -928 1376 -960
WIRE 1440 -928 1440 -1024
WIRE 1440 -928 1376 -928
WIRE -352 -896 -352 -928
WIRE 672 -896 640 -896
WIRE 800 -896 768 -896
WIRE 1296 -896 1296 -960
WIRE 1296 -896 1216 -896
WIRE 1456 -896 1456 -960
WIRE 1568 -896 1456 -896
WIRE 720 -864 720 -896
WIRE 784 -864 784 -960
WIRE 784 -864 720 -864
WIRE 1440 -848 1376 -848
WIRE 640 -832 640 -896
WIRE 640 -832 608 -832
WIRE 800 -832 800 -896
WIRE 848 -832 800 -832
WIRE 1008 -832 976 -832
WIRE 1296 -816 1296 -896
WIRE 1328 -816 1296 -816
WIRE 1376 -816 1376 -848
WIRE 1456 -816 1456 -896
WIRE 1456 -816 1424 -816
WIRE 784 -784 720 -784
WIRE 1440 -784 1440 -848
WIRE 640 -752 640 -832
WIRE 672 -752 640 -752
WIRE 720 -752 720 -784
WIRE 800 -752 800 -832
WIRE 800 -752 768 -752
WIRE 1008 -736 1008 -832
WIRE 1008 -736 960 -736
WIRE 784 -720 784 -784
WIRE 1408 -720 1408 -768
WIRE -176 -656 -176 -688
WIRE 752 -656 752 -704
WIRE 1712 -640 1600 -640
WIRE 464 -608 464 -656
WIRE 1056 -608 1056 -656
WIRE 448 -560 416 -560
WIRE 576 -560 544 -560
WIRE 1040 -560 1008 -560
WIRE 1168 -560 1136 -560
WIRE -192 -528 -192 -560
WIRE 496 -528 496 -560
WIRE 560 -528 560 -624
WIRE 560 -528 496 -528
WIRE 1088 -528 1088 -560
WIRE 1152 -528 1152 -624
WIRE 1152 -528 1088 -528
WIRE 416 -496 416 -560
WIRE 416 -496 224 -496
WIRE 576 -496 576 -560
WIRE 608 -496 608 -832
WIRE 608 -496 576 -496
WIRE 656 -496 608 -496
WIRE 960 -496 960 -736
WIRE 1008 -496 1008 -560
WIRE 1008 -496 960 -496
WIRE 1168 -496 1168 -560
WIRE 1216 -496 1216 -896
WIRE 1216 -496 1168 -496
WIRE 1312 -496 1216 -496
WIRE 1536 -496 1536 -640
WIRE 1536 -496 1440 -496
WIRE 1696 -496 1536 -496
WIRE 960 -464 960 -496
WIRE 960 -464 912 -464
WIRE 560 -448 496 -448
WIRE 1152 -448 1088 -448
WIRE 416 -416 416 -496
WIRE 448 -416 416 -416
WIRE 496 -416 496 -448
WIRE 576 -416 576 -496
WIRE 576 -416 544 -416
WIRE 1008 -416 1008 -496
WIRE 1040 -416 1008 -416
WIRE 1088 -416 1088 -448
WIRE 1168 -416 1168 -496
WIRE 1168 -416 1136 -416
WIRE 560 -384 560 -448
WIRE 1152 -384 1152 -448
WIRE 656 -336 656 -432
WIRE 528 -320 528 -368
WIRE 1120 -320 1120 -368
FLAG -352 -816 0
FLAG -192 -448 0
FLAG -192 -560 CK
FLAG -352 -928 D
FLAG -192 -928 0
FLAG -192 -1040 CLR
FLAG -176 -576 0
FLAG -176 -688 VDD
FLAG 448 -784 ~CK
FLAG 320 -784 CK
IOPIN 320 -784 In
FLAG 384 -752 0
FLAG 384 -816 VDD
FLAG 464 -656 CK
FLAG 560 -384 0
FLAG 560 -624 VDD
FLAG 1344 -1056 CK
FLAG 1440 -784 0
FLAG 1440 -1024 VDD
FLAG 688 -992 ~CK
FLAG 752 -656 CK
FLAG 784 -720 0
FLAG 784 -960 VDD
FLAG 1056 -656 ~CK
FLAG 1120 -320 CK
FLAG 1152 -384 0
FLAG 1152 -624 VDD
FLAG 528 -320 ~CK
FLAG 1408 -720 ~CK
FLAG 1696 -496 Q
FLAG 224 -496 D
FLAG 784 -384 0
FLAG 1488 -768 VDD
FLAG 1648 -768 0
FLAG 624 -272 VDD
FLAG 688 -272 0
FLAG 1776 -672 VDD
FLAG 1776 -608 0
FLAG 656 -208 CLR
FLAG 1840 -640 CLR
FLAG 784 -544 VDD
FLAG 912 -864 VDD
FLAG 912 -800 0
FLAG 1376 -528 VDD
FLAG 1376 -464 0
SYMBOL voltage -352 -912 R0
WINDOW 123 0 0 Left 0
WINDOW 39 0 0 Left 0
SYMATTR InstName V6
SYMATTR Value PULSE(0 1.2 0.5n 1p 1p 1n 2n)
SYMBOL voltage -192 -544 R0
WINDOW 123 0 0 Left 0
WINDOW 39 0 0 Left 0
SYMATTR InstName V7
SYMATTR Value PULSE(0 1.2 0.2n 1p 1p 1n 2n)
SYMBOL voltage -192 -1024 R0
WINDOW 123 0 0 Left 0
WINDOW 39 0 0 Left 0
SYMATTR InstName V8
SYMATTR Value PULSE(0 1.2 2n 1p 1p 0.2n 3.5n)
SYMBOL voltage -176 -672 R0
WINDOW 123 0 0 Left 0
WINDOW 39 0 0 Left 0
SYMATTR InstName V2
SYMATTR Value 1.2
SYMBOL INV 400 -784 R0
SYMATTR InstName X1
SYMBOL pmos4 544 -608 R90
SYMATTR InstName M1
SYMATTR Value2 l=130n w=300n
SYMBOL nmos4 448 -368 R270
SYMATTR InstName M2
SYMATTR Value2 l=130n w=300n
SYMBOL pmos4 1424 -1008 R90
SYMATTR InstName M3
SYMATTR Value2 l=130n w=300n
SYMBOL nmos4 1328 -768 R270
SYMATTR InstName M4
SYMATTR Value2 l=130n w=300n
SYMBOL pmos4 768 -944 R90
SYMATTR InstName M5
SYMATTR Value2 l=130n w=300n
SYMBOL nmos4 672 -704 R270
SYMATTR InstName M6
SYMATTR Value2 l=130n w=300n
SYMBOL pmos4 1136 -608 R90
SYMATTR InstName M7
SYMATTR Value2 l=130n w=300n
SYMBOL nmos4 1040 -368 R270
SYMATTR InstName M8
SYMATTR Value2 l=130n w=300n
SYMBOL NAND_NAND 800 -464 R0
SYMATTR InstName X2
SYMBOL NAND_NAND 1568 -784 R270
SYMATTR InstName X3
SYMBOL INV 656 -288 R270
SYMATTR InstName X4
SYMBOL INV 1760 -640 M0
SYMATTR InstName X5
SYMBOL INV 896 -832 M0
SYMATTR InstName X6
SYMBOL INV 1392 -496 R0
SYMATTR InstName X7
TEXT -64 -1064 Left 2 !.tran 20n
TEXT -88 -984 Left 2 !.lib 130nm.txt
