Version 4
SHEET 1 964 680
WIRE 704 -384 -352 -384
WIRE 400 -288 400 -336
WIRE 384 -240 352 -240
WIRE 512 -240 480 -240
WIRE -256 -224 -256 -272
WIRE -352 -208 -352 -384
WIRE -352 -208 -560 -208
WIRE 432 -208 432 -240
WIRE 496 -208 496 -304
WIRE 496 -208 432 -208
WIRE -272 -176 -304 -176
WIRE -144 -176 -176 -176
WIRE 352 -176 352 -240
WIRE 352 -176 272 -176
WIRE 512 -176 512 -240
WIRE 624 -176 512 -176
WIRE 704 -176 704 -384
WIRE 704 -176 624 -176
WIRE 752 -176 704 -176
WIRE -640 -144 -640 -176
WIRE -224 -144 -224 -176
WIRE -160 -144 -160 -240
WIRE -160 -144 -224 -144
WIRE 496 -128 432 -128
WIRE -304 -112 -304 -176
WIRE -304 -112 -336 -112
WIRE -144 -112 -144 -176
WIRE -96 -112 -144 -112
WIRE 64 -112 32 -112
WIRE 352 -96 352 -176
WIRE 384 -96 352 -96
WIRE 432 -96 432 -128
WIRE 512 -96 512 -176
WIRE 512 -96 480 -96
WIRE -160 -64 -224 -64
WIRE 496 -64 496 -128
WIRE -560 -32 -560 -208
WIRE -560 -32 -640 -32
WIRE -304 -32 -304 -112
WIRE -272 -32 -304 -32
WIRE -224 -32 -224 -64
WIRE -144 -32 -144 -112
WIRE -144 -32 -176 -32
WIRE 64 -16 64 -112
WIRE 64 -16 16 -16
WIRE -160 0 -160 -64
WIRE 464 0 464 -48
WIRE -192 64 -192 16
WIRE 768 80 656 80
WIRE -480 112 -480 64
WIRE 112 112 112 64
WIRE -496 160 -528 160
WIRE -368 160 -400 160
WIRE 96 160 64 160
WIRE 224 160 192 160
WIRE -448 192 -448 160
WIRE -384 192 -384 96
WIRE -384 192 -448 192
WIRE 144 192 144 160
WIRE 208 192 208 96
WIRE 208 192 144 192
WIRE -640 224 -640 -32
WIRE -640 224 -720 224
WIRE -528 224 -528 160
WIRE -528 224 -640 224
WIRE -368 224 -368 160
WIRE -336 224 -336 -112
WIRE -336 224 -368 224
WIRE -288 224 -336 224
WIRE 16 224 16 -16
WIRE 64 224 64 160
WIRE 64 224 16 224
WIRE 224 224 224 160
WIRE 272 224 272 -176
WIRE 272 224 224 224
WIRE 368 224 272 224
WIRE 592 224 592 80
WIRE 592 224 496 224
WIRE 800 224 592 224
WIRE 16 256 16 224
WIRE 16 256 -32 256
WIRE -384 272 -448 272
WIRE 208 272 144 272
WIRE -528 304 -528 224
WIRE -496 304 -528 304
WIRE -448 304 -448 272
WIRE -368 304 -368 224
WIRE -368 304 -400 304
WIRE 64 304 64 224
WIRE 96 304 64 304
WIRE 144 304 144 272
WIRE 224 304 224 224
WIRE 224 304 192 304
WIRE -384 336 -384 272
WIRE 208 336 208 272
WIRE -288 384 -288 288
WIRE -416 400 -416 352
WIRE 176 400 176 352
FLAG -480 64 CK
FLAG -384 336 0
FLAG -640 -64 0
FLAG -640 -176 VDD
FLAG -384 96 VDD
FLAG -480 -288 ~CK
FLAG -608 -288 CK
FLAG -544 -256 0
FLAG -544 -320 VDD
FLAG 400 -336 CK
FLAG 496 -64 0
FLAG 496 -304 VDD
FLAG -256 -272 ~CK
FLAG -192 64 CK
FLAG -160 0 0
FLAG -160 -240 VDD
FLAG 112 64 ~CK
FLAG 176 400 CK
FLAG 208 336 0
FLAG 208 96 VDD
FLAG -416 400 ~CK
FLAG 464 0 ~CK
FLAG -160 336 0
FLAG 544 -48 VDD
FLAG 704 -48 0
FLAG -320 448 VDD
FLAG -256 448 0
FLAG 832 48 VDD
FLAG 832 112 0
FLAG -160 176 VDD
FLAG -32 -144 VDD
FLAG -32 -80 0
FLAG 432 192 VDD
FLAG 432 256 0
FLAG 864 192 VDD
FLAG 864 256 0
FLAG 928 224 Q
FLAG -288 512 0
FLAG 896 80 0
SYMBOL pmos4 -400 112 R90
SYMATTR InstName M1
SYMATTR Value2 l=130n w=300n
SYMBOL nmos4 -496 352 R270
SYMATTR InstName M2
SYMATTR Value2 l=130n w=300n
SYMBOL voltage -640 -160 R0
WINDOW 123 0 0 Left 0
WINDOW 39 0 0 Left 0
SYMATTR InstName V1
SYMATTR Value 1.2
SYMBOL INV -528 -288 R0
SYMATTR InstName X1
SYMBOL pmos4 480 -288 R90
SYMATTR InstName M3
SYMATTR Value2 l=130n w=300n
SYMBOL nmos4 384 -48 R270
SYMATTR InstName M4
SYMATTR Value2 l=130n w=300n
SYMBOL pmos4 -176 -224 R90
SYMATTR InstName M5
SYMATTR Value2 l=130n w=300n
SYMBOL nmos4 -272 16 R270
SYMATTR InstName M6
SYMATTR Value2 l=130n w=300n
SYMBOL pmos4 192 112 R90
SYMATTR InstName M7
SYMATTR Value2 l=130n w=300n
SYMBOL nmos4 96 352 R270
SYMATTR InstName M8
SYMATTR Value2 l=130n w=300n
SYMBOL NAND_NAND -144 256 R0
SYMATTR InstName X2
SYMBOL NAND_NAND 624 -64 R270
SYMATTR InstName X3
SYMBOL INV -288 432 R270
SYMATTR InstName X4
SYMBOL INV 816 80 M0
SYMATTR InstName X5
SYMBOL INV -48 -112 M0
SYMATTR InstName X6
SYMBOL INV 448 224 R0
SYMATTR InstName X7
SYMBOL INV 880 224 R0
SYMATTR InstName X8
