Version 4
SHEET 1 1044 680
WIRE -64 -160 -80 -160
WIRE -16 -160 -64 -160
WIRE 192 -160 144 -160
WIRE 208 -160 192 -160
WIRE -336 -112 -336 -144
WIRE -736 80 -736 48
WIRE -272 192 -272 160
FLAG -336 -32 0
FLAG -336 -144 VDD
FLAG -736 160 0
FLAG -736 48 CK1
FLAG -64 -160 CK
FLAG -272 272 0
FLAG -272 160 CK
FLAG 192 -160 Q
SYMBOL voltage -336 -128 R0
WINDOW 123 0 0 Left 0
WINDOW 39 0 0 Left 0
SYMATTR InstName V1
SYMATTR Value 1.2
SYMBOL voltage -736 64 R0
WINDOW 123 0 0 Left 0
WINDOW 39 0 0 Left 0
SYMATTR InstName V3
SYMATTR Value SINE(0 1.2 1g)
SYMBOL div_div 64 -160 R0
SYMATTR InstName X1
SYMBOL voltage -272 176 R0
WINDOW 123 0 0 Left 0
WINDOW 39 0 0 Left 0
SYMATTR InstName V2
SYMATTR Value PULSE(0 1.2 0 1p 1p 1n 2n)
TEXT -632 -264 Left 2 !.tran 0.1u
TEXT -640 -88 Left 2 !.lib 130nm.txt
