Version 4
SHEET 1 1160 680
WIRE -912 -208 -912 -240
WIRE 624 -208 624 -256
WIRE 608 -160 576 -160
WIRE 736 -160 704 -160
WIRE -32 -144 -32 -192
WIRE 656 -128 656 -160
WIRE 720 -128 720 -224
WIRE 720 -128 656 -128
WIRE -1072 -96 -1072 -128
WIRE -48 -96 -80 -96
WIRE 80 -96 48 -96
WIRE 576 -96 576 -160
WIRE 576 -96 496 -96
WIRE 736 -96 736 -160
WIRE 848 -96 736 -96
WIRE 0 -64 0 -96
WIRE 64 -64 64 -160
WIRE 64 -64 0 -64
WIRE 720 -48 656 -48
WIRE -80 -32 -80 -96
WIRE -80 -32 -112 -32
WIRE 80 -32 80 -96
WIRE 128 -32 80 -32
WIRE 288 -32 256 -32
WIRE 576 -16 576 -96
WIRE 608 -16 576 -16
WIRE 656 -16 656 -48
WIRE 736 -16 736 -96
WIRE 736 -16 704 -16
WIRE 64 16 0 16
WIRE 720 16 720 -48
WIRE -80 48 -80 -32
WIRE -48 48 -80 48
WIRE 0 48 0 16
WIRE 80 48 80 -32
WIRE 80 48 48 48
WIRE 288 64 288 -32
WIRE 288 64 240 64
WIRE 64 80 64 16
WIRE 688 80 688 32
WIRE -896 144 -896 112
WIRE 32 144 32 96
WIRE 992 160 880 160
WIRE -256 192 -256 144
WIRE 336 192 336 144
WIRE -272 240 -304 240
WIRE -144 240 -176 240
WIRE 320 240 288 240
WIRE 448 240 416 240
WIRE -912 272 -912 240
WIRE -224 272 -224 240
WIRE -160 272 -160 176
WIRE -160 272 -224 272
WIRE 368 272 368 240
WIRE 432 272 432 176
WIRE 432 272 368 272
WIRE -304 304 -304 240
WIRE -304 304 -496 304
WIRE -144 304 -144 240
WIRE -112 304 -112 -32
WIRE -112 304 -144 304
WIRE -64 304 -112 304
WIRE 240 304 240 64
WIRE 288 304 288 240
WIRE 288 304 240 304
WIRE 448 304 448 240
WIRE 496 304 496 -96
WIRE 496 304 448 304
WIRE 592 304 496 304
WIRE 816 304 816 160
WIRE 816 304 720 304
WIRE 976 304 816 304
WIRE 240 336 240 304
WIRE 240 336 192 336
WIRE -160 352 -224 352
WIRE 432 352 368 352
WIRE -304 384 -304 304
WIRE -272 384 -304 384
WIRE -224 384 -224 352
WIRE -144 384 -144 304
WIRE -144 384 -176 384
WIRE 288 384 288 304
WIRE 320 384 288 384
WIRE 368 384 368 352
WIRE 448 384 448 304
WIRE 448 384 416 384
WIRE -160 416 -160 352
WIRE 432 416 432 352
WIRE -64 464 -64 368
WIRE -192 480 -192 432
WIRE 400 480 400 432
FLAG -1072 -16 0
FLAG -912 352 0
FLAG -912 240 CK
FLAG -1072 -128 D
FLAG -912 -128 0
FLAG -912 -240 CLR
FLAG -896 224 0
FLAG -896 112 VDD
FLAG -272 16 ~CK
FLAG -400 16 CK
IOPIN -400 16 In
FLAG -336 48 0
FLAG -336 -16 VDD
FLAG -256 144 CK
FLAG -160 416 0
FLAG -160 176 VDD
FLAG 624 -256 CK
FLAG 720 16 0
FLAG 720 -224 VDD
FLAG -32 -192 ~CK
FLAG 32 144 CK
FLAG 64 80 0
FLAG 64 -160 VDD
FLAG 336 144 ~CK
FLAG 400 480 CK
FLAG 432 416 0
FLAG 432 176 VDD
FLAG -192 480 ~CK
FLAG 688 80 ~CK
FLAG 976 304 Q
FLAG -496 304 D
FLAG 64 416 0
FLAG 768 32 VDD
FLAG 928 32 0
FLAG -96 528 VDD
FLAG -32 528 0
FLAG 1056 128 VDD
FLAG 1056 192 0
FLAG -64 592 CLR
FLAG 1120 160 CLR
FLAG 64 256 VDD
FLAG 192 -64 VDD
FLAG 192 0 0
FLAG 656 272 VDD
FLAG 656 336 0
SYMBOL voltage -1072 -112 R0
WINDOW 123 0 0 Left 0
WINDOW 39 0 0 Left 0
SYMATTR InstName V1
SYMATTR Value PULSE(0 1.2 0.5n 1p 1p 2n 4n)
SYMBOL voltage -912 256 R0
WINDOW 123 0 0 Left 0
WINDOW 39 0 0 Left 0
SYMATTR InstName V2
SYMATTR Value PULSE(0 1.2 1n 1p 1p 1n 2n)
SYMBOL voltage -912 -224 R0
WINDOW 123 0 0 Left 0
WINDOW 39 0 0 Left 0
SYMATTR InstName V3
SYMATTR Value PULSE(0 1.2 2.2n 1p 1p 0.2n 3.5n)
SYMBOL voltage -896 128 R0
WINDOW 123 0 0 Left 0
WINDOW 39 0 0 Left 0
SYMATTR InstName V4
SYMATTR Value 1.2
SYMBOL INV -320 16 R0
SYMATTR InstName X1
SYMBOL pmos4 -176 192 R90
SYMATTR InstName M1
SYMATTR Value2 l=130n w=300n
SYMBOL nmos4 -272 432 R270
SYMATTR InstName M2
SYMATTR Value2 l=130n w=300n
SYMBOL pmos4 704 -208 R90
SYMATTR InstName M3
SYMATTR Value2 l=130n w=300n
SYMBOL nmos4 608 32 R270
SYMATTR InstName M4
SYMATTR Value2 l=130n w=300n
SYMBOL pmos4 48 -144 R90
SYMATTR InstName M5
SYMATTR Value2 l=130n w=300n
SYMBOL nmos4 -48 96 R270
SYMATTR InstName M6
SYMATTR Value2 l=130n w=300n
SYMBOL pmos4 416 192 R90
SYMATTR InstName M7
SYMATTR Value2 l=130n w=300n
SYMBOL nmos4 320 432 R270
SYMATTR InstName M8
SYMATTR Value2 l=130n w=300n
SYMBOL NAND_NAND 80 336 R0
SYMATTR InstName X2
SYMBOL NAND_NAND 848 16 R270
SYMATTR InstName X3
SYMBOL INV -64 512 R270
SYMATTR InstName X4
SYMBOL INV 1040 160 M0
SYMATTR InstName X5
SYMBOL INV 176 -32 M0
SYMATTR InstName X6
SYMBOL INV 672 304 R0
SYMATTR InstName X7
TEXT -784 -264 Left 2 !.tran 20n
TEXT -808 -184 Left 2 !.lib 130nm.txt
