Version 4
SHEET 1 880 680
WIRE -368 -32 -368 -64
WIRE 80 128 -16 128
WIRE 304 160 272 160
WIRE 352 160 304 160
WIRE 80 176 0 176
WIRE -384 192 -384 160
FLAG -368 48 0
FLAG -368 -64 D
FLAG -384 272 0
FLAG -384 160 FB
FLAG -16 128 D
FLAG 0 176 FB
FLAG 304 160 V
SYMBOL charge_pump 144 144 R0
SYMATTR InstName X1
SYMBOL voltage -368 -48 R0
WINDOW 123 0 0 Left 0
WINDOW 39 0 0 Left 0
SYMATTR InstName V1
SYMATTR Value PULSE(0 1.2 0 1p 1p 160n 320n)
SYMBOL voltage -384 176 R0
WINDOW 123 0 0 Left 0
WINDOW 39 0 0 Left 0
SYMATTR InstName V2
SYMATTR Value PULSE(0 1.2 10n 1p 1p 160n 320n)
