Version 4
SHEET 1 1288 804
WIRE 640 -1216 640 -1264
WIRE 624 -1168 592 -1168
WIRE 752 -1168 720 -1168
WIRE -16 -1152 -16 -1200
WIRE 672 -1136 672 -1168
WIRE 736 -1136 736 -1232
WIRE 736 -1136 672 -1136
WIRE -32 -1104 -64 -1104
WIRE 96 -1104 64 -1104
WIRE 592 -1104 592 -1168
WIRE 592 -1104 512 -1104
WIRE 752 -1104 752 -1168
WIRE 864 -1104 752 -1104
WIRE 16 -1072 16 -1104
WIRE 80 -1072 80 -1168
WIRE 80 -1072 16 -1072
WIRE 736 -1056 672 -1056
WIRE -64 -1040 -64 -1104
WIRE -64 -1040 -96 -1040
WIRE 96 -1040 96 -1104
WIRE 144 -1040 96 -1040
WIRE 304 -1040 272 -1040
WIRE 592 -1024 592 -1104
WIRE 624 -1024 592 -1024
WIRE 672 -1024 672 -1056
WIRE 752 -1024 752 -1104
WIRE 752 -1024 720 -1024
WIRE 80 -992 16 -992
WIRE 736 -992 736 -1056
WIRE -64 -960 -64 -1040
WIRE -32 -960 -64 -960
WIRE 16 -960 16 -992
WIRE 96 -960 96 -1040
WIRE 96 -960 64 -960
WIRE 304 -944 304 -1040
WIRE 304 -944 256 -944
WIRE 80 -928 80 -992
WIRE 704 -928 704 -976
WIRE -880 -864 -880 -896
WIRE 48 -864 48 -912
WIRE 1008 -848 896 -848
WIRE -240 -816 -240 -864
WIRE 352 -816 352 -864
WIRE -256 -768 -288 -768
WIRE -128 -768 -160 -768
WIRE 336 -768 304 -768
WIRE 464 -768 432 -768
WIRE -208 -736 -208 -768
WIRE -144 -736 -144 -832
WIRE -144 -736 -208 -736
WIRE 384 -736 384 -768
WIRE 448 -736 448 -832
WIRE 448 -736 384 -736
WIRE -288 -704 -288 -768
WIRE -288 -704 -480 -704
WIRE -128 -704 -128 -768
WIRE -96 -704 -96 -1040
WIRE -96 -704 -128 -704
WIRE -48 -704 -96 -704
WIRE 256 -704 256 -944
WIRE 304 -704 304 -768
WIRE 304 -704 256 -704
WIRE 464 -704 464 -768
WIRE 512 -704 512 -1104
WIRE 512 -704 464 -704
WIRE 608 -704 512 -704
WIRE 832 -704 832 -848
WIRE 832 -704 736 -704
WIRE 992 -704 832 -704
WIRE 256 -672 256 -704
WIRE 256 -672 208 -672
WIRE -144 -656 -208 -656
WIRE 448 -656 384 -656
WIRE -288 -624 -288 -704
WIRE -256 -624 -288 -624
WIRE -208 -624 -208 -656
WIRE -128 -624 -128 -704
WIRE -128 -624 -160 -624
WIRE 304 -624 304 -704
WIRE 336 -624 304 -624
WIRE 384 -624 384 -656
WIRE 464 -624 464 -704
WIRE 464 -624 432 -624
WIRE -144 -592 -144 -656
WIRE 448 -592 448 -656
WIRE -48 -544 -48 -640
WIRE -176 -528 -176 -576
WIRE 416 -528 416 -576
FLAG -880 -784 0
FLAG -880 -896 VDD
FLAG -304 -992 ~CK
FLAG -432 -992 CK
IOPIN -432 -992 In
FLAG -368 -960 0
FLAG -368 -1024 VDD
FLAG -240 -864 CK
FLAG -144 -592 0
FLAG -144 -832 VDD
FLAG 640 -1264 CK
FLAG 736 -992 0
FLAG 736 -1232 VDD
FLAG -16 -1200 ~CK
FLAG 48 -864 CK
FLAG 80 -928 0
FLAG 80 -1168 VDD
FLAG 352 -864 ~CK
FLAG 416 -528 CK
FLAG 448 -592 0
FLAG 448 -832 VDD
FLAG -176 -528 ~CK
FLAG 704 -928 ~CK
FLAG 992 -704 Q
FLAG -480 -704 D
FLAG 80 -592 0
FLAG 784 -976 VDD
FLAG 944 -976 0
FLAG -80 -480 VDD
FLAG -16 -480 0
FLAG 1072 -880 VDD
FLAG 1072 -816 0
FLAG -48 -416 CLR
FLAG 1136 -848 CLR
FLAG 80 -752 VDD
FLAG 208 -1072 VDD
FLAG 208 -1008 0
FLAG 672 -736 VDD
FLAG 672 -672 0
SYMBOL voltage -880 -880 R0
WINDOW 123 0 0 Left 0
WINDOW 39 0 0 Left 0
SYMATTR InstName V1
SYMATTR Value 1.2
SYMBOL INV -352 -992 R0
SYMATTR InstName X1
SYMBOL pmos4 -160 -816 R90
SYMATTR InstName M1
SYMATTR Value2 l=130n w=300n
SYMBOL nmos4 -256 -576 R270
SYMATTR InstName M2
SYMATTR Value2 l=130n w=300n
SYMBOL pmos4 720 -1216 R90
SYMATTR InstName M3
SYMATTR Value2 l=130n w=300n
SYMBOL nmos4 624 -976 R270
SYMATTR InstName M4
SYMATTR Value2 l=130n w=1.8u
SYMBOL pmos4 64 -1152 R90
SYMATTR InstName M5
SYMATTR Value2 l=130n w=300n
SYMBOL nmos4 -32 -912 R270
SYMATTR InstName M6
SYMATTR Value2 l=130n w=300n
SYMBOL pmos4 432 -816 R90
SYMATTR InstName M7
SYMATTR Value2 l=130n w=300n
SYMBOL nmos4 336 -576 R270
SYMATTR InstName M8
SYMATTR Value2 l=130n w=1.8u
SYMBOL NAND_NAND 96 -672 R0
SYMATTR InstName X2
SYMBOL NAND_NAND 864 -992 R270
SYMATTR InstName X3
SYMBOL INV -48 -496 R270
SYMATTR InstName X4
SYMBOL INV 1056 -848 M0
SYMATTR InstName X5
SYMBOL INV 192 -1040 M0
SYMATTR InstName X6
SYMBOL INV 688 -704 R0
SYMATTR InstName X7
