Version 4
SHEET 1 1176 680
WIRE -176 -224 -272 -224
WIRE -160 -224 -176 -224
WIRE -176 -176 -272 -176
WIRE 336 -32 320 -32
WIRE 400 -32 336 -32
WIRE 592 -32 560 -32
WIRE 944 -32 752 -32
WIRE -368 48 -368 16
WIRE 912 96 864 96
WIRE 944 96 944 -32
WIRE 944 96 912 96
WIRE 272 112 272 16
WIRE 304 112 272 112
WIRE 496 112 464 112
WIRE 720 112 656 112
WIRE 928 128 864 128
WIRE 944 128 928 128
WIRE 272 192 272 112
WIRE 336 240 320 240
WIRE 384 240 336 240
WIRE 576 240 544 240
WIRE 944 240 944 128
WIRE 944 240 736 240
WIRE -384 352 -384 208
FLAG -368 128 0
FLAG -368 16 VCO
FLAG 208 224 VCO
FLAG 800 48 VDD
FLAG 800 176 0
FLAG 208 -48 VDD
FLAG 208 256 VDD
FLAG -384 432 0
FLAG -384 208 INPUT
FLAG 208 -16 INPUT
FLAG 32 80 0
FLAG 32 0 VDD
FLAG 912 96 UP
FLAG 928 128 DOWN
FLAG 480 -80 VDD
FLAG 480 16 0
FLAG 672 -80 VDD
FLAG 672 16 0
FLAG 464 192 VDD
FLAG 464 288 0
FLAG 656 192 VDD
FLAG 656 288 0
FLAG 576 64 VDD
FLAG 576 160 0
FLAG 384 64 VDD
FLAG 384 160 0
FLAG -464 -208 R
FLAG -464 -176 V
FLAG -176 -224 UP1
FLAG -176 -176 DOWN1
SYMBOL voltage -368 32 R0
WINDOW 123 0 0 Left 0
WINDOW 39 0 0 Left 0
SYMATTR InstName V1
SYMATTR Value PULSE(0 1.2 0.5n 1p 1p 0.5n 1n)
SYMBOL AND 816 112 M0
SYMATTR InstName X1
SYMBOL FFD_FFD1 272 -32 R0
SYMATTR InstName X2
SYMBOL FFD_FFD1 272 240 M180
SYMATTR InstName X3
SYMBOL voltage -384 336 R0
WINDOW 123 0 0 Left 0
WINDOW 39 0 0 Left 0
SYMATTR InstName V2
SYMATTR Value PULSE(0 1.2 0.5n 1p 1p 3n 6n)
SYMBOL voltage 32 -16 R0
WINDOW 123 0 0 Left 0
WINDOW 39 0 0 Left 0
SYMATTR InstName V3
SYMATTR Value 1.2
SYMBOL INV_INV 480 -32 R0
SYMATTR InstName X4
SYMBOL INV_INV 672 -32 R0
SYMATTR InstName X5
SYMBOL INV_INV 464 240 R0
SYMATTR InstName X6
SYMBOL INV_INV 656 240 R0
SYMATTR InstName X7
SYMBOL INV_INV 576 112 M0
SYMATTR InstName X8
SYMBOL INV_INV 384 112 M0
SYMATTR InstName X9
SYMBOL PFD_PFD2 -368 -208 R0
SYMATTR InstName X10
TEXT -256 24 Left 2 !.tran 20n
TEXT -48 168 Left 2 !.lib 130nm.txt
