Version 4
SHEET 1 880 680
WIRE -96 0 -112 0
WIRE -32 0 -96 0
WIRE 160 0 128 0
WIRE 512 0 320 0
WIRE 480 128 432 128
WIRE 512 128 512 0
WIRE 512 128 480 128
WIRE -160 144 -160 48
WIRE -128 144 -160 144
WIRE 64 144 32 144
WIRE 288 144 224 144
WIRE 496 160 432 160
WIRE 512 160 496 160
WIRE -160 224 -160 144
WIRE -96 272 -112 272
WIRE -48 272 -96 272
WIRE 144 272 112 272
WIRE 512 272 512 160
WIRE 512 272 304 272
FLAG -224 256 VCO
FLAG 368 80 VDD
FLAG 368 208 0
FLAG -224 -16 VDD
FLAG -224 288 VDD
FLAG -224 16 IN
FLAG -400 112 0
FLAG -400 32 VDD
FLAG 480 128 UP
FLAG 496 160 DOWN
FLAG 48 -48 VDD
FLAG 48 48 0
FLAG 240 -48 VDD
FLAG 240 48 0
FLAG 32 224 VDD
FLAG 32 320 0
FLAG 224 224 VDD
FLAG 224 320 0
FLAG 144 96 VDD
FLAG 144 192 0
FLAG -48 96 VDD
FLAG -48 192 0
SYMBOL AND 384 144 M0
SYMATTR InstName X1
SYMBOL FFD_FFD1 -160 0 R0
SYMATTR InstName X2
SYMBOL FFD_FFD1 -160 272 M180
SYMATTR InstName X3
SYMBOL voltage -400 16 R0
WINDOW 123 0 0 Left 0
WINDOW 39 0 0 Left 0
SYMATTR InstName V1
SYMATTR Value 1.2
SYMBOL INV_INV 48 0 R0
SYMATTR InstName X4
SYMBOL INV_INV 240 0 R0
SYMATTR InstName X5
SYMBOL INV_INV 32 272 R0
SYMATTR InstName X6
SYMBOL INV_INV 224 272 R0
SYMATTR InstName X7
SYMBOL INV_INV 144 144 M0
SYMATTR InstName X8
SYMBOL INV_INV -48 144 M0
SYMATTR InstName X9
TEXT -480 200 Left 2 !.lib 130nm.txt
