Version 4
SHEET 1 1428 680
WIRE -208 -208 -208 -240
WIRE -560 -64 -560 -80
WIRE 112 112 32 112
WIRE -160 128 -240 128
WIRE 320 144 320 32
WIRE 320 144 304 144
WIRE 336 144 320 144
WIRE 608 144 608 112
WIRE 608 144 496 144
WIRE -160 160 -352 160
WIRE 112 160 32 160
WIRE -352 272 -352 160
WIRE -336 272 -352 272
WIRE -144 272 -176 272
WIRE 48 272 16 272
WIRE 240 272 208 272
WIRE 432 272 400 272
WIRE 608 272 608 144
WIRE 608 272 592 272
FLAG -560 16 0
FLAG -560 -80 VDD
FLAG -208 -128 0
FLAG -208 -240 D
FLAG -240 128 D
FLAG 608 112 Vout
FLAG 320 32 Vctrl
SYMBOL charge_pump 176 128 R0
SYMATTR InstName X1
SYMBOL PFD_PFD2 -64 128 R0
SYMATTR InstName X3
SYMBOL voltage -560 -80 R0
WINDOW 123 0 0 Left 0
WINDOW 39 24 124 Left 2
SYMATTR InstName VDD1
SYMATTR Value 1.2
SYMBOL VCO_VCO 416 144 R0
SYMATTR InstName X4
SYMBOL voltage -208 -224 R0
WINDOW 123 0 0 Left 0
WINDOW 39 0 0 Left 0
SYMATTR InstName V1
SYMATTR Value PULSE(0 1.2 0 1p 1p 160n 320n)
SYMBOL div_div 512 272 M0
SYMATTR InstName X2
SYMBOL div_div 320 272 M0
SYMATTR InstName X5
SYMBOL div_div 128 272 M0
SYMATTR InstName X6
SYMBOL div_div -64 272 M0
SYMATTR InstName X7
SYMBOL div_div -256 272 M0
SYMATTR InstName X8
TEXT -656 248 Left 2 !.tran 2u uic
TEXT -600 72 Left 2 !.lib 130nm.txt
